<?xml version="1.0" encoding="UTF-8"?>

<!-- generated on 2022-04-10 10:56:38 by Eclipse SUMO duarouter Version 1.12.0
<configuration xmlns:xsi="http://www.w3.org/2001/XMLSchema-instance" xsi:noNamespaceSchemaLocation="http://sumo.dlr.de/xsd/duarouterConfiguration.xsd">

    <input>
        <net-file value="/home/minor/Sumo/minor-project/osm/osm.net.xml"/>
        <route-files value="/home/minor/Sumo/minor-project/osm/osm.passenger.trips.xml"/>
    </input>

    <output>
        <output-file value="/home/minor/Sumo/minor-project/osm/osm.passenger.trips.xml.tmp"/>
        <write-trips value="true"/>
    </output>

    <time>
        <begin value="0"/>
        <end value="3600"/>
    </time>

    <report>
        <no-warnings value="true"/>
        <ignore-errors value="true"/>
        <no-step-log value="true"/>
    </report>

</configuration>
-->

<routes xmlns:xsi="http://www.w3.org/2001/XMLSchema-instance" xsi:noNamespaceSchemaLocation="http://sumo.dlr.de/xsd/routes_file.xsd">
    <vType id="veh_passenger" vClass="passenger"/>
    <trip id="veh0" type="veh_passenger" depart="0.00" departLane="best" from="315448142#0" to="-1000431112"/>
    <trip id="veh1" type="veh_passenger" depart="0.27" departLane="best" from="-660649736#3" to="-341764489#6"/>
    <trip id="veh2" type="veh_passenger" depart="0.53" departLane="best" from="37121503#6" to="333590250#7"/>
    <trip id="veh3" type="veh_passenger" depart="0.80" departLane="best" from="995103909" to="-129094092#10"/>
    <trip id="veh4" type="veh_passenger" depart="1.06" departLane="best" from="-996798138#1" to="-1000435403#1"/>
    <trip id="veh5" type="veh_passenger" depart="1.33" departLane="best" from="-341764460#1" to="1000435404#3"/>
    <trip id="veh6" type="veh_passenger" depart="1.59" departLane="best" from="-1000431124#3" to="-339927947#5"/>
    <trip id="veh7" type="veh_passenger" depart="1.86" departLane="best" from="315580308#2" to="1001384524#5"/>
    <trip id="veh8" type="veh_passenger" depart="2.12" departLane="best" from="-341764479#1" to="244849640#1"/>
    <trip id="veh9" type="veh_passenger" depart="2.39" departLane="best" from="669893478#0" to="-1000411161"/>
    <trip id="veh10" type="veh_passenger" depart="2.65" departLane="best" from="669890341#1" to="341759455#5"/>
    <trip id="veh11" type="veh_passenger" depart="2.92" departLane="best" from="-985284994#2" to="-315478920#0"/>
    <trip id="veh12" type="veh_passenger" depart="3.18" departLane="best" from="997064630" to="-96992660#8"/>
    <trip id="veh13" type="veh_passenger" depart="3.45" departLane="best" from="-165473591#0" to="-169833688#5"/>
    <trip id="veh14" type="veh_passenger" depart="3.71" departLane="best" from="747948378#1" to="297103558#0"/>
    <trip id="veh15" type="veh_passenger" depart="3.98" departLane="best" from="669890343#0" to="341774417#0"/>
    <trip id="veh16" type="veh_passenger" depart="4.24" departLane="best" from="1001010252#1" to="998647532"/>
    <trip id="veh17" type="veh_passenger" depart="4.51" departLane="best" from="-995207883#1" to="1001616533#2"/>
    <trip id="veh18" type="veh_passenger" depart="4.77" departLane="best" from="701602625#1" to="297119222#4"/>
    <trip id="veh19" type="veh_passenger" depart="5.04" departLane="best" from="992242923" to="169839778#6"/>
    <trip id="veh20" type="veh_passenger" depart="5.30" departLane="best" from="341764424" to="-1000474968#0"/>
    <trip id="veh21" type="veh_passenger" depart="5.57" departLane="best" from="-341764501#11" to="-668642913#4"/>
    <trip id="veh22" type="veh_passenger" depart="5.83" departLane="best" from="-1001710422#0" to="-341774388#0"/>
    <trip id="veh23" type="veh_passenger" depart="6.10" departLane="best" from="-228647669#0" to="-660655811#0"/>
    <trip id="veh24" type="veh_passenger" depart="6.36" departLane="best" from="315448116#5" to="-994843752#1"/>
    <trip id="veh25" type="veh_passenger" depart="6.63" departLane="best" from="-994894851#0" to="-341759485#2"/>
    <trip id="veh26" type="veh_passenger" depart="6.89" departLane="best" from="-461576911#21" to="996772067#2"/>
    <trip id="veh27" type="veh_passenger" depart="7.16" departLane="best" from="315478924#0" to="297113181"/>
    <trip id="veh28" type="veh_passenger" depart="7.42" departLane="best" from="-315604525#2" to="341774411"/>
    <trip id="veh29" type="veh_passenger" depart="7.69" departLane="best" from="-315580354#9" to="-995207893"/>
    <trip id="veh30" type="veh_passenger" depart="7.95" departLane="best" from="999758736#1" to="315448140#6"/>
    <trip id="veh31" type="veh_passenger" depart="8.22" departLane="best" from="1001721285#0" to="333592518#0"/>
    <trip id="veh32" type="veh_passenger" depart="8.48" departLane="best" from="746891846#10" to="660644506#1"/>
    <trip id="veh33" type="veh_passenger" depart="8.75" departLane="best" from="-341764505#0" to="-1000437306"/>
    <trip id="veh34" type="veh_passenger" depart="9.01" departLane="best" from="-669947420#1" to="-461600841#6"/>
    <trip id="veh35" type="veh_passenger" depart="9.28" departLane="best" from="-341764419#0" to="996809910#2"/>
    <trip id="veh36" type="veh_passenger" depart="9.54" departLane="best" from="994822962#1" to="-669947417#1"/>
    <trip id="veh37" type="veh_passenger" depart="9.81" departLane="best" from="315580356#1" to="-995456245#1"/>
    <trip id="veh38" type="veh_passenger" depart="10.07" departLane="best" from="995455187#0" to="-999486034#2"/>
    <trip id="veh39" type="veh_passenger" depart="10.34" departLane="best" from="-449457300#1" to="-387137615#6"/>
    <trip id="veh40" type="veh_passenger" depart="10.60" departLane="best" from="1050245607#1" to="-41567091#12"/>
    <trip id="veh41" type="veh_passenger" depart="10.87" departLane="best" from="238952338#4" to="995207880#0"/>
    <trip id="veh42" type="veh_passenger" depart="11.13" departLane="best" from="-995459051#11" to="-341764464#0"/>
    <trip id="veh43" type="veh_passenger" depart="11.40" departLane="best" from="999871248#6" to="1000438652#2"/>
    <trip id="veh44" type="veh_passenger" depart="11.66" departLane="best" from="-129094103#1" to="-1000476697"/>
    <trip id="veh45" type="veh_passenger" depart="11.93" departLane="best" from="-297098922#0" to="315445348#9"/>
    <trip id="veh46" type="veh_passenger" depart="12.19" departLane="best" from="668642922#0" to="-996804853#3"/>
    <trip id="veh47" type="veh_passenger" depart="12.46" departLane="best" from="-1001320525#1" to="-995212110"/>
    <trip id="veh48" type="veh_passenger" depart="12.72" departLane="best" from="999870154#0" to="1000516669#0"/>
    <trip id="veh49" type="veh_passenger" depart="12.99" departLane="best" from="998468234#0" to="992239136#2"/>
    <trip id="veh50" type="veh_passenger" depart="13.25" departLane="best" from="-1000417917#0" to="341764500#17"/>
    <trip id="veh51" type="veh_passenger" depart="13.52" departLane="best" from="333592487#4" to="1001311983"/>
    <trip id="veh52" type="veh_passenger" depart="13.78" departLane="best" from="-461576911#2" to="315448145"/>
    <trip id="veh53" type="veh_passenger" depart="14.05" departLane="best" from="-297103548#5" to="-996853709#3"/>
    <trip id="veh54" type="veh_passenger" depart="14.31" departLane="best" from="-999477440#0" to="996853708"/>
    <trip id="veh55" type="veh_passenger" depart="14.58" departLane="best" from="992369629" to="-41567339#0"/>
    <trip id="veh56" type="veh_passenger" depart="14.84" departLane="best" from="1000431113" to="-316775754#0"/>
    <trip id="veh57" type="veh_passenger" depart="15.11" departLane="best" from="995453897" to="992368161#0"/>
    <trip id="veh58" type="veh_passenger" depart="15.37" departLane="best" from="-669886282#1" to="315448138#1"/>
    <trip id="veh59" type="veh_passenger" depart="15.64" departLane="best" from="297113183#7" to="-315478901#15"/>
    <trip id="veh60" type="veh_passenger" depart="15.91" departLane="best" from="444054457#2" to="1001357772#3"/>
    <trip id="veh61" type="veh_passenger" depart="16.17" departLane="best" from="660650503#0" to="1000516677#1"/>
    <trip id="veh62" type="veh_passenger" depart="16.44" departLane="best" from="-1000395498#5" to="-697755516#1"/>
    <trip id="veh63" type="veh_passenger" depart="16.70" departLane="best" from="-1000425165" to="995524975"/>
    <trip id="veh64" type="veh_passenger" depart="16.97" departLane="best" from="994826640" to="701602632#0"/>
    <trip id="veh65" type="veh_passenger" depart="17.23" departLane="best" from="-669893479#0" to="-1000524598#3"/>
    <trip id="veh66" type="veh_passenger" depart="17.50" departLane="best" from="994826630" to="996823587#3"/>
    <trip id="veh67" type="veh_passenger" depart="17.76" departLane="best" from="-129094090#11" to="1000417206#0"/>
    <trip id="veh68" type="veh_passenger" depart="18.03" departLane="best" from="-1001380484" to="41567091#0"/>
    <trip id="veh69" type="veh_passenger" depart="18.29" departLane="best" from="461576911#5" to="-314695156#10"/>
    <trip id="veh70" type="veh_passenger" depart="18.56" departLane="best" from="-999880145#0" to="1001395737"/>
    <trip id="veh71" type="veh_passenger" depart="18.82" departLane="best" from="-449457301#2" to="992368186"/>
    <trip id="veh72" type="veh_passenger" depart="19.09" departLane="best" from="-996809910#0" to="-341764422#1"/>
    <trip id="veh73" type="veh_passenger" depart="19.35" departLane="best" from="1001357771" to="341774417#3"/>
    <trip id="veh74" type="veh_passenger" depart="19.62" departLane="best" from="-341759439#14" to="-669932701#0"/>
    <trip id="veh75" type="veh_passenger" depart="19.88" departLane="best" from="999866249#6" to="315580304#5"/>
    <trip id="veh76" type="veh_passenger" depart="20.15" departLane="best" from="-997064632#1" to="1000444627"/>
    <trip id="veh77" type="veh_passenger" depart="20.41" departLane="best" from="-297114531#1" to="-341764494#25"/>
    <trip id="veh78" type="veh_passenger" depart="20.68" departLane="best" from="-97094735#12" to="239220718#3"/>
    <trip id="veh79" type="veh_passenger" depart="20.94" departLane="best" from="-341764507" to="-341764476#0"/>
    <trip id="veh80" type="veh_passenger" depart="21.21" departLane="best" from="-1001385506" to="315448079#1"/>
    <trip id="veh81" type="veh_passenger" depart="21.47" departLane="best" from="-341764503" to="995218486#1"/>
    <trip id="veh82" type="veh_passenger" depart="21.74" departLane="best" from="992239133#0" to="-1001385504"/>
    <trip id="veh83" type="veh_passenger" depart="22.00" departLane="best" from="-37121470#13" to="315604555#0"/>
    <trip id="veh84" type="veh_passenger" depart="22.27" departLane="best" from="-341764439#1" to="-315445343#9"/>
    <trip id="veh85" type="veh_passenger" depart="22.53" departLane="best" from="996769361#1" to="146351041"/>
    <trip id="veh86" type="veh_passenger" depart="22.80" departLane="best" from="-999871246" to="668637280#0"/>
    <trip id="veh87" type="veh_passenger" depart="23.06" departLane="best" from="669890344#12" to="-333592497#0"/>
    <trip id="veh88" type="veh_passenger" depart="23.33" departLane="best" from="-169833688#9" to="-996843541"/>
    <trip id="veh89" type="veh_passenger" depart="23.59" departLane="best" from="-996809910#15" to="-999763658#0"/>
    <trip id="veh90" type="veh_passenger" depart="23.86" departLane="best" from="341774417#4" to="323806678#6"/>
    <trip id="veh91" type="veh_passenger" depart="24.12" departLane="best" from="999486541#2" to="-169839779#12"/>
    <trip id="veh92" type="veh_passenger" depart="24.39" departLane="best" from="-995463340" to="-97955314#2"/>
    <trip id="veh93" type="veh_passenger" depart="24.65" departLane="best" from="992242921#3" to="-387137643#1"/>
    <trip id="veh94" type="veh_passenger" depart="24.92" departLane="best" from="-333592493#0" to="-998638142"/>
    <trip id="veh95" type="veh_passenger" depart="25.18" departLane="best" from="-996798136#9" to="-660655843#0"/>
    <trip id="veh96" type="veh_passenger" depart="25.45" departLane="best" from="-387137647#4" to="995466975"/>
    <trip id="veh97" type="veh_passenger" depart="25.71" departLane="best" from="-997080521" to="992239145"/>
    <trip id="veh98" type="veh_passenger" depart="25.98" departLane="best" from="1001395933" to="-1000487344"/>
    <trip id="veh99" type="veh_passenger" depart="26.24" departLane="best" from="999876932#2" to="746816892#6"/>
    <trip id="veh100" type="veh_passenger" depart="26.51" departLane="best" from="998468226" to="995497121"/>
    <trip id="veh101" type="veh_passenger" depart="26.77" departLane="best" from="747948380#3" to="-315581810"/>
    <trip id="veh102" type="veh_passenger" depart="27.04" departLane="best" from="1000415254" to="-341764436#1"/>
    <trip id="veh103" type="veh_passenger" depart="27.30" departLane="best" from="-995462360" to="-1000524602#1"/>
    <trip id="veh104" type="veh_passenger" depart="27.57" departLane="best" from="-995207886#1" to="999489585"/>
    <trip id="veh105" type="veh_passenger" depart="27.83" departLane="best" from="-461574599#0" to="668637278#3"/>
    <trip id="veh106" type="veh_passenger" depart="28.10" departLane="best" from="-999478676" to="-996809910#0"/>
    <trip id="veh107" type="veh_passenger" depart="28.36" departLane="best" from="997064632#0" to="999866251#1"/>
    <trip id="veh108" type="veh_passenger" depart="28.63" departLane="best" from="1001717929#3" to="341764494#22"/>
    <trip id="veh109" type="veh_passenger" depart="28.89" departLane="best" from="-315478909#3" to="-669877195#3"/>
    <trip id="veh110" type="veh_passenger" depart="29.16" departLane="best" from="998468224#3" to="192076522#5"/>
    <trip id="veh111" type="veh_passenger" depart="29.42" departLane="best" from="1001366363" to="387137689#6"/>
    <trip id="veh112" type="veh_passenger" depart="29.69" departLane="best" from="-1000521109" to="228648105#4"/>
    <trip id="veh113" type="veh_passenger" depart="29.95" departLane="best" from="1000431130" to="97094708#4"/>
    <trip id="veh114" type="veh_passenger" depart="30.22" departLane="best" from="-315580306#0" to="997077887#0"/>
    <trip id="veh115" type="veh_passenger" depart="30.48" departLane="best" from="-1001712374" to="-333590269#0"/>
    <trip id="veh116" type="veh_passenger" depart="30.75" departLane="best" from="297092757#2" to="333590245#20"/>
    <trip id="veh117" type="veh_passenger" depart="31.01" departLane="best" from="-341774412#2" to="-297113187"/>
    <trip id="veh118" type="veh_passenger" depart="31.28" departLane="best" from="994899375" to="-387137615#11"/>
    <trip id="veh119" type="veh_passenger" depart="31.55" departLane="best" from="297092756#2" to="297119223#7"/>
    <trip id="veh120" type="veh_passenger" depart="31.81" departLane="best" from="-996793817#1" to="228647669#7"/>
    <trip id="veh121" type="veh_passenger" depart="32.08" departLane="best" from="1000478064" to="996767433"/>
    <trip id="veh122" type="veh_passenger" depart="32.34" departLane="best" from="-341759453#2" to="341764486#0"/>
    <trip id="veh123" type="veh_passenger" depart="32.61" departLane="best" from="-37121474" to="-995456247"/>
    <trip id="veh124" type="veh_passenger" depart="32.87" departLane="best" from="316775756" to="-669890313#1"/>
    <trip id="veh125" type="veh_passenger" depart="33.14" departLane="best" from="-669947423#1" to="388210907#10"/>
    <trip id="veh126" type="veh_passenger" depart="33.40" departLane="best" from="-1001389969" to="-999485627"/>
    <trip id="veh127" type="veh_passenger" depart="33.67" departLane="best" from="-1001391681" to="-341764431#0"/>
    <trip id="veh128" type="veh_passenger" depart="33.93" departLane="best" from="-461574599#0" to="996763055"/>
    <trip id="veh129" type="veh_passenger" depart="34.20" departLane="best" from="994829604#0" to="994827994#1"/>
    <trip id="veh130" type="veh_passenger" depart="34.46" departLane="best" from="-994883230#0" to="-315580308#0"/>
    <trip id="veh131" type="veh_passenger" depart="34.73" departLane="best" from="746816887#0" to="341759492#1"/>
    <trip id="veh132" type="veh_passenger" depart="34.99" departLane="best" from="297114531#11" to="999493004#1"/>
    <trip id="veh133" type="veh_passenger" depart="35.26" departLane="best" from="315580333#0" to="-1000412606#0"/>
    <trip id="veh134" type="veh_passenger" depart="35.52" departLane="best" from="669947416#3" to="-669890309#2"/>
    <trip id="veh135" type="veh_passenger" depart="35.79" departLane="best" from="315604526#3" to="996793827#0"/>
    <trip id="veh136" type="veh_passenger" depart="36.05" departLane="best" from="-315445348#3" to="-297113167"/>
    <trip id="veh137" type="veh_passenger" depart="36.32" departLane="best" from="-297092759#8" to="1001707776#0"/>
    <trip id="veh138" type="veh_passenger" depart="36.58" departLane="best" from="-585465348" to="297107811#2"/>
    <trip id="veh139" type="veh_passenger" depart="36.85" departLane="best" from="341764494#25" to="-341759451#0"/>
    <trip id="veh140" type="veh_passenger" depart="37.11" departLane="best" from="315448111#1" to="-444054455"/>
    <trip id="veh141" type="veh_passenger" depart="37.38" departLane="best" from="1000417932" to="995218486#0"/>
    <trip id="veh142" type="veh_passenger" depart="37.64" departLane="best" from="746900659#0" to="-133727784#6"/>
    <trip id="veh143" type="veh_passenger" depart="37.91" departLane="best" from="-996809910#15" to="-660649739#8"/>
    <trip id="veh144" type="veh_passenger" depart="38.17" departLane="best" from="-1000408849" to="477642226#2"/>
    <trip id="veh145" type="veh_passenger" depart="38.44" departLane="best" from="315448130#1" to="-413347454#3"/>
    <trip id="veh146" type="veh_passenger" depart="38.70" departLane="best" from="387137617#3" to="1001603262"/>
    <trip id="veh147" type="veh_passenger" depart="38.97" departLane="best" from="-996823587#2" to="-1000412619"/>
    <trip id="veh148" type="veh_passenger" depart="39.23" departLane="best" from="-1001395735" to="994843713#1"/>
    <trip id="veh149" type="veh_passenger" depart="39.50" departLane="best" from="995216387" to="1001385506"/>
    <trip id="veh150" type="veh_passenger" depart="39.76" departLane="best" from="746816888#4" to="228647669#13"/>
    <trip id="veh151" type="veh_passenger" depart="40.03" departLane="best" from="-315448144" to="-297120558#8"/>
    <trip id="veh152" type="veh_passenger" depart="40.29" departLane="best" from="-669895582#0" to="995207890#1"/>
    <trip id="veh153" type="veh_passenger" depart="40.56" departLane="best" from="669877180#5" to="992239136#1"/>
    <trip id="veh154" type="veh_passenger" depart="40.82" departLane="best" from="995207890#1" to="-341759492#0"/>
    <trip id="veh155" type="veh_passenger" depart="41.09" departLane="best" from="-387137646#3" to="-228648105#4"/>
    <trip id="veh156" type="veh_passenger" depart="41.35" departLane="best" from="660655843#1" to="994843752#3"/>
    <trip id="veh157" type="veh_passenger" depart="41.62" departLane="best" from="-995497105" to="314694135#0"/>
    <trip id="veh158" type="veh_passenger" depart="41.88" departLane="best" from="-315478905#3" to="995524986"/>
    <trip id="veh159" type="veh_passenger" depart="42.15" departLane="best" from="992242946#6" to="999466865#1"/>
    <trip id="veh160" type="veh_passenger" depart="42.41" departLane="best" from="669895585" to="994829956#1"/>
    <trip id="veh161" type="veh_passenger" depart="42.68" departLane="best" from="-1000428012" to="37121486#3"/>
    <trip id="veh162" type="veh_passenger" depart="42.94" departLane="best" from="-746892407" to="995524995#8"/>
    <trip id="veh163" type="veh_passenger" depart="43.21" departLane="best" from="669890314#1" to="992242943#1"/>
    <trip id="veh164" type="veh_passenger" depart="43.47" departLane="best" from="669895585" to="-461576911#20"/>
    <trip id="veh165" type="veh_passenger" depart="43.74" departLane="best" from="668637312" to="-297098917#22"/>
    <trip id="veh166" type="veh_passenger" depart="44.00" departLane="best" from="992368183#1" to="985284992#3"/>
    <trip id="veh167" type="veh_passenger" depart="44.27" departLane="best" from="-999486541#5" to="-669890344#10"/>
    <trip id="veh168" type="veh_passenger" depart="44.53" departLane="best" from="669877177#0" to="-341764500#8"/>
    <trip id="veh169" type="veh_passenger" depart="44.80" departLane="best" from="-1000428002#0" to="-333592530#2"/>
    <trip id="veh170" type="veh_passenger" depart="45.06" departLane="best" from="-701602639#0" to="992242946#2"/>
    <trip id="veh171" type="veh_passenger" depart="45.33" departLane="best" from="997621675#2" to="-660655897#5"/>
    <trip id="veh172" type="veh_passenger" depart="45.59" departLane="best" from="315449264#0" to="-995459051#8"/>
    <trip id="veh173" type="veh_passenger" depart="45.86" departLane="best" from="999483701#10" to="1001010252#4"/>
    <trip id="veh174" type="veh_passenger" depart="46.12" departLane="best" from="996798132#1" to="-297113166"/>
    <trip id="veh175" type="veh_passenger" depart="46.39" departLane="best" from="998468230#5" to="-316775752"/>
    <trip id="veh176" type="veh_passenger" depart="46.65" departLane="best" from="997080522" to="-461575858#0"/>
    <trip id="veh177" type="veh_passenger" depart="46.92" departLane="best" from="-297098917#3" to="-996853709#0"/>
    <trip id="veh178" type="veh_passenger" depart="47.19" departLane="best" from="341774412#6" to="-669947410#1"/>
    <trip id="veh179" type="veh_passenger" depart="47.45" departLane="best" from="297113169#17" to="1000441257#0"/>
    <trip id="veh180" type="veh_passenger" depart="47.72" departLane="best" from="-995218480" to="169833691#5"/>
    <trip id="veh181" type="veh_passenger" depart="47.98" departLane="best" from="-387149386" to="341764443#8"/>
    <trip id="veh182" type="veh_passenger" depart="48.25" departLane="best" from="-1000398541#5" to="995497106"/>
    <trip id="veh184" type="veh_passenger" depart="48.78" departLane="best" from="387137634#2" to="315605583#1"/>
    <trip id="veh185" type="veh_passenger" depart="49.04" departLane="best" from="-994843713#3" to="-1001384524#0"/>
    <trip id="veh186" type="veh_passenger" depart="49.31" departLane="best" from="315604529#1" to="-746814306#2"/>
    <trip id="veh187" type="veh_passenger" depart="49.57" departLane="best" from="-669947411#1" to="747948380#2"/>
    <trip id="veh188" type="veh_passenger" depart="49.84" departLane="best" from="341764500#17" to="-669890315"/>
    <trip id="veh189" type="veh_passenger" depart="50.10" departLane="best" from="-669895593#2" to="-995502109"/>
    <trip id="veh190" type="veh_passenger" depart="50.37" departLane="best" from="-995462367" to="-669877190#0"/>
    <trip id="veh191" type="veh_passenger" depart="50.63" departLane="best" from="-297120558#4" to="-996798133#1"/>
    <trip id="veh192" type="veh_passenger" depart="50.90" departLane="best" from="996798136#13" to="333590257"/>
    <trip id="veh193" type="veh_passenger" depart="51.16" departLane="best" from="995212859#3" to="297115791#35"/>
    <trip id="veh194" type="veh_passenger" depart="51.43" departLane="best" from="-669890317#5" to="1001391678"/>
    <trip id="veh195" type="veh_passenger" depart="51.69" departLane="best" from="-1000395498#2" to="-668641675#0"/>
    <trip id="veh196" type="veh_passenger" depart="51.96" departLane="best" from="-996839109#2" to="197982214#0"/>
    <trip id="veh197" type="veh_passenger" depart="52.22" departLane="best" from="315580354#10" to="-999758734"/>
    <trip id="veh198" type="veh_passenger" depart="52.49" departLane="best" from="-997078805" to="-341764436#0"/>
    <trip id="veh199" type="veh_passenger" depart="52.75" departLane="best" from="-999871248#6" to="995212107"/>
    <trip id="veh200" type="veh_passenger" depart="53.02" departLane="best" from="669877180#2" to="-315604520#5"/>
    <trip id="veh202" type="veh_passenger" depart="53.55" departLane="best" from="315448092#0" to="-96992660#10"/>
    <trip id="veh203" type="veh_passenger" depart="53.81" departLane="best" from="669947422#3" to="387149418#4"/>
    <trip id="veh205" type="veh_passenger" depart="54.34" departLane="best" from="-339927947#8" to="-1000428009"/>
    <trip id="veh206" type="veh_passenger" depart="54.61" departLane="best" from="-387137607" to="-999880145#0"/>
    <trip id="veh207" type="veh_passenger" depart="54.87" departLane="best" from="871365465#1" to="-1001389972#1"/>
    <trip id="veh208" type="veh_passenger" depart="55.14" departLane="best" from="-996764363#0" to="315445362#2"/>
    <trip id="veh209" type="veh_passenger" depart="55.40" departLane="best" from="-333592535#1" to="341759449#1"/>
    <trip id="veh210" type="veh_passenger" depart="55.67" departLane="best" from="1000423553" to="-387137595#3"/>
    <trip id="veh211" type="veh_passenger" depart="55.93" departLane="best" from="315580362" to="-1000410237#0"/>
    <trip id="veh212" type="veh_passenger" depart="56.20" departLane="best" from="388210907#10" to="477642222#14"/>
    <trip id="veh213" type="veh_passenger" depart="56.46" departLane="best" from="-297092759#11" to="-996809917"/>
    <trip id="veh214" type="veh_passenger" depart="56.73" departLane="best" from="-315604555#2" to="997065038"/>
    <trip id="veh215" type="veh_passenger" depart="56.99" departLane="best" from="1000444629#3" to="-1000485730"/>
    <trip id="veh216" type="veh_passenger" depart="57.26" departLane="best" from="-387137644#0" to="747948380#5"/>
    <trip id="veh217" type="veh_passenger" depart="57.52" departLane="best" from="-999483271#3" to="669886293"/>
    <trip id="veh218" type="veh_passenger" depart="57.79" departLane="best" from="315604549#3" to="999757180"/>
    <trip id="veh219" type="veh_passenger" depart="58.05" departLane="best" from="297092757#9" to="996843539#0"/>
    <trip id="veh220" type="veh_passenger" depart="58.32" departLane="best" from="995103901#1" to="297114531#10"/>
    <trip id="veh221" type="veh_passenger" depart="58.58" departLane="best" from="341764500#1" to="1000435399#3"/>
    <trip id="veh222" type="veh_passenger" depart="58.85" departLane="best" from="701602626#9" to="1001391677"/>
    <trip id="veh223" type="veh_passenger" depart="59.11" departLane="best" from="995207872" to="387137643#6"/>
    <trip id="veh224" type="veh_passenger" depart="59.38" departLane="best" from="-999876931#5" to="-413347428#3"/>
    <trip id="veh225" type="veh_passenger" depart="59.64" departLane="best" from="-387137616#6" to="315448126#6"/>
    <trip id="veh226" type="veh_passenger" depart="59.91" departLane="best" from="461576911#5" to="1000475768"/>
    <trip id="veh227" type="veh_passenger" depart="60.17" departLane="best" from="315445350" to="-660649735#7"/>
    <trip id="veh228" type="veh_passenger" depart="60.44" departLane="best" from="-1001616533#0" to="-668637314#1"/>
    <trip id="veh229" type="veh_passenger" depart="60.70" departLane="best" from="-477642226#2" to="-670146225#3"/>
    <trip id="veh230" type="veh_passenger" depart="60.97" departLane="best" from="1001359516" to="-315448080#0"/>
    <trip id="veh231" type="veh_passenger" depart="61.23" departLane="best" from="-341774367#1" to="341225367#1"/>
    <trip id="veh232" type="veh_passenger" depart="61.50" departLane="best" from="341764438#1" to="-1001357772#0"/>
    <trip id="veh233" type="veh_passenger" depart="61.76" departLane="best" from="-995498418" to="1001371967#1"/>
    <trip id="veh234" type="veh_passenger" depart="62.03" departLane="best" from="-996767434" to="-341759467#0"/>
    <trip id="veh235" type="veh_passenger" depart="62.29" departLane="best" from="-996793829" to="995218480"/>
    <trip id="veh236" type="veh_passenger" depart="62.56" departLane="best" from="238952338#2" to="341759443#4"/>
    <trip id="veh237" type="veh_passenger" depart="62.82" departLane="best" from="974767462" to="461576911#13"/>
    <trip id="veh238" type="veh_passenger" depart="63.09" departLane="best" from="-995207901" to="-1000410241#1"/>
    <trip id="veh239" type="veh_passenger" depart="63.36" departLane="best" from="-992368161#1" to="388210930#3"/>
    <trip id="veh240" type="veh_passenger" depart="63.62" departLane="best" from="97094708#6" to="996852272"/>
    <trip id="veh241" type="veh_passenger" depart="63.89" departLane="best" from="-996793816#0" to="387137686#7"/>
    <trip id="veh242" type="veh_passenger" depart="64.15" departLane="best" from="1001385857" to="297103551#2"/>
    <trip id="veh243" type="veh_passenger" depart="64.42" departLane="best" from="-341764479#10" to="-341764464#2"/>
    <trip id="veh244" type="veh_passenger" depart="64.68" departLane="best" from="-997060161#1" to="-1000435398#1"/>
    <trip id="veh245" type="veh_passenger" depart="64.95" departLane="best" from="-96992660#22" to="333590269#2"/>
    <trip id="veh246" type="veh_passenger" depart="65.21" departLane="best" from="-995491913" to="-315580377#1"/>
    <trip id="veh247" type="veh_passenger" depart="65.48" departLane="best" from="-999763659#1" to="-297120640#1"/>
    <trip id="veh248" type="veh_passenger" depart="65.74" departLane="best" from="315445341#15" to="-1000431128#0"/>
    <trip id="veh249" type="veh_passenger" depart="66.01" departLane="best" from="-995454267" to="129094091#6"/>
    <trip id="veh250" type="veh_passenger" depart="66.27" departLane="best" from="-1000431128#1" to="315449265#3"/>
    <trip id="veh251" type="veh_passenger" depart="66.54" departLane="best" from="-315445356#0" to="-999489623"/>
    <trip id="veh252" type="veh_passenger" depart="66.80" departLane="best" from="-1000485731" to="-995207890#0"/>
    <trip id="veh253" type="veh_passenger" depart="67.07" departLane="best" from="-341764421#2" to="-701602626#21"/>
    <trip id="veh254" type="veh_passenger" depart="67.33" departLane="best" from="41567091#2" to="-995207890#0"/>
    <trip id="veh255" type="veh_passenger" depart="67.60" departLane="best" from="388210924#2" to="701602633#1"/>
    <trip id="veh256" type="veh_passenger" depart="67.86" departLane="best" from="-387137684#1" to="-1001718727"/>