<?xml version="1.0" encoding="UTF-8"?>

<!-- generated on 2022-04-10 10:54:55 by Eclipse SUMO polyconvert Version 1.12.0
<configuration xmlns:xsi="http://www.w3.org/2001/XMLSchema-instance" xsi:noNamespaceSchemaLocation="http://sumo.dlr.de/xsd/polyconvertConfiguration.xsd">

    <input>
        <net-file value="osm.net.xml"/>
        <osm-files value="osm_bbox.osm.xml"/>
        <osm.keep-full-type value="true"/>
        <type-file value="/home/minor/.local/share/sumo/data/typemap/osmPolyconvert.typ.xml"/>
    </input>

    <output>
        <output-file value="osm.poly.xml"/>
    </output>

    <processing>
        <poi-layer-offset value="5"/>
    </processing>

    <report>
        <verbose value="true"/>
    </report>

</configuration>
-->

<additional xmlns:xsi="http://www.w3.org/2001/XMLSchema-instance" xsi:noNamespaceSchemaLocation="http://sumo.dlr.de/xsd/additional_file.xsd">
    <location netOffset="-312129.18,-2823078.53" convBoundary="-11735.04,-3077.69,19555.76,16996.58" origBoundary="85.011841,25.487350,85.325361,25.666832" projParameter="+proj=utm +zone=45 +ellps=WGS84 +datum=WGS84 +units=m +no_defs"/>

    <poly id="133727576" type="leisure.sports_centre" color="207,245,201" fill="1" layer="-2.00" shape="2535.024636,9205.613294 2535.986617,8908.048226 2332.392321,8907.448859 2331.485263,9205.024595 2535.024636,9205.613294"/>
    <poly id="133729056" type="leisure.stadium" color="207,245,201" fill="1" layer="-2.00" shape="3648.309809,10404.593890 3706.066859,10391.728919 3691.763479,10331.632391 3918.124064,10235.245771 3925.272095,10265.427121 3936.827110,10263.394987 4005.019253,10517.845125 4017.565077,10607.171608 4050.675559,10623.865160 3740.440349,10675.319804 3705.841194,10667.223119 3648.309809,10404.593890"/>
    <poly id="169833680" type="waterway.canal" color="181,209,209" fill="0" layer="-4.00" shape="5894.570991,7980.333327 6159.202999,7979.401924 6286.559369,7971.494051 6358.442482,7945.862964 6492.658671,7934.783583"/>
    <poly id="297094719" type="natural.water" color="181,209,209" fill="1" layer="-4.00" shape="9549.196372,9080.950505 9567.170082,9097.483545 9589.017411,9104.691535 9617.765554,9096.806077 9637.409652,9072.268808 9658.471329,9020.779335 9671.818122,8956.585732 9661.805330,8905.069033 9661.610379,8890.502643 9668.440401,8870.103270 9710.185620,8838.645097 9727.403635,8798.685149 9723.073301,8773.139324 9709.505536,8754.774462 9684.942586,8743.625188 9661.462610,8746.587296 9637.218661,8759.276030 9584.734157,8817.811473 9568.483308,8863.940821 9565.651311,8884.286719 9573.214069,8918.619269 9579.493927,8956.935315 9576.255421,8979.934561 9556.794634,9018.163221 9548.192876,9039.029566 9543.182463,9062.495722 9549.196372,9080.950505"/>
    <poly id="297117122" type="amenity.college" color="237,199,199" fill="1" layer="-2.00" shape="4473.941060,9626.339178 4500.000848,9621.902954 4525.008102,9617.636390 4517.094796,9574.114672 4465.294301,9582.096342 4473.941060,9626.339178"/>
    <poly id="297117122#1" type="building.yes" color="255,230,230" fill="1" layer="-1.00" shape="4473.941060,9626.339178 4500.000848,9621.902954 4525.008102,9617.636390 4517.094796,9574.114672 4465.294301,9582.096342 4473.941060,9626.339178"/>
    <poly id="314694131" type="waterway.river" color="181,209,209" fill="0" layer="-4.00" shape="4266.311794,7779.903557 4255.790482,7759.407651 4235.549866,7737.971021 4209.654256,7657.647811 4200.961327,7613.815676 4180.595637,7524.297923 4161.552510,7441.808453 4132.311718,7381.286043 4112.152200,7303.853144 4104.736825,7253.599538 4101.931262,7225.762461 4093.069841,7189.422371 4091.040704,7179.268389 4097.863376,7153.026909 4139.348883,7135.226365 4186.698757,7124.424851 4225.274884,7120.801997 4333.237527,7109.320914 4468.725865,7082.726274 4498.124694,7089.822417 4534.450332,7084.026645 4674.660067,7046.334144 4882.264342,7001.978450 4980.171129,6986.951382 5008.463618,6978.608148 5021.815763,6980.640801 5028.654295,6994.229954 5035.678554,7020.624278 5043.913881,7038.614928 5082.920198,7034.102340 5249.056371,7008.868128 5299.491384,6995.812520 5340.978877,6978.026921 5355.790703,6957.515655 5372.986100,6948.893113 5405.283461,6940.939072 5428.667563,6930.027087 5459.796899,6901.337624 5487.612714,6858.135378 5523.558637,6824.527435 5561.036232,6805.911108 5587.131239,6798.485563 5699.769619,6724.542195 5828.296954,6643.303178 5878.886486,6609.053130 5921.768282,6596.103176 5943.188346,6571.536077 6001.140481,6556.164839 6073.042196,6522.511136 6149.933440,6495.858391 6217.380972,6460.493567 6270.441133,6445.201309 6349.797209,6403.946984 6403.697753,6384.666390 6504.366060,6343.998174 6661.122612,6314.046232 6708.384814,6295.743515 6872.925799,6250.676005 6882.511632,6237.295106 6920.118424,6227.954415 6974.146177,6217.947814 7006.267566,6229.433172 7052.781119,6254.417267 7098.116967,6257.779800 7142.343079,6245.258879 7207.575764,6210.815718 7254.623574,6176.619284 7302.485850,6137.991406 7358.806405,6133.262282 7382.939943,6112.184192 7399.803046,6111.512719 7413.854313,6099.844467 7439.168787,6067.261395 7459.465094,6025.484100 7459.566578,6000.310836 7449.627404,5987.637817 7426.465313,5981.769125 7407.292093,5975.857553 7395.604332,5965.412997 7396.205668,5943.767217 7396.283204,5916.832681 7394.639976,5860.772119 7412.895155,5799.589531 7416.995389,5741.689652 7403.288260,5712.736948 7374.306428,5671.183501 7330.427779,5578.158518 7314.517813,5550.565214 7314.571255,5521.858337 7337.094530,5480.482850 7363.139243,5469.095388 7381.353286,5470.167251 7430.417698,5486.731317 7459.322163,5489.874456 7475.256000,5486.567788 7486.967933,5466.090148 7494.207457,5409.920548 7505.527228,5361.185287 7529.083006,5329.955823 7556.345512,5277.049765 7584.093766,5228.092475 7584.629951,5201.594958 7596.952061,5160.801108 7596.145934,5133.878575 7609.597027,5111.172826 7661.879764,5069.838976 7694.726302,5069.395168 7726.001322,5083.552827 7775.700241,5081.552086 7790.242792,5073.411960 7811.375468,5059.875964 7833.447054,5017.621276 7869.869814,4985.786749 7925.903254,4959.415639 7950.791638,4961.284606 8049.530882,5006.762236 8067.279576,5006.079770 8093.809538,4997.778385 8128.041889,4968.167806 8148.160062,4944.940744 8154.454768,4918.354665 8153.637854,4890.546004 8167.986793,4865.768096 8195.847314,4830.881293 8233.455556,4810.111008 8267.262743,4774.989179 8323.317439,4756.053659 8342.083967,4736.889013 8440.688960,4727.563043 8469.210348,4709.607939 8482.714683,4691.467092 8493.142056,4685.155799 8512.992969,4698.028658 8532.333565,4713.312568 8568.043641,4722.482360 8585.263549,4740.752967 8600.140211,4764.140390 8646.593371,4810.701939 8677.822910,4828.252605 8712.261712,4843.068010 8740.010744,4842.429393 8752.686146,4822.416522 8769.814746,4793.502760 8819.164362,4775.146884 8829.593224,4748.727316 8853.532754,4724.818633 8875.577460,4719.969276 8892.751618,4714.642438 8972.871877,4699.087234 9006.209613,4676.016681 9018.070622,4636.449400 9043.195414,4600.460109 9073.214935,4547.243802 9084.861650,4511.158306 9090.621444,4458.001345 9098.793806,4424.377673 9125.747781,4361.342266 9132.137789,4340.948742 9135.566429,4332.061720 9175.264446,4312.540399 9187.228583,4310.618573 9203.446119,4327.618200 9215.952953,4333.200725 9228.712477,4324.631934 9264.008955,4307.385640 9278.296008,4313.819632 9354.426142,4394.929573 9369.507926,4426.967758 9400.135975,4459.673194 9476.829331,4483.818883 9523.679366,4500.863466 9551.535624,4491.661065 9583.657819,4470.026434 9646.700308,4436.068785 9669.173930,4423.404354 9685.132945,4421.861687 9704.372188,4432.650492 9731.664595,4481.299573 9739.404559,4482.160087"/>
    <poly id="314696371" type="building.stadium" color="255,230,230" fill="1" layer="-1.00" shape="2366.836822,8961.014918 2364.213093,8973.172480 2363.280073,8984.087739 2366.529529,9077.420775 2368.107138,9090.417249 2374.833664,9105.203349 2386.664395,9115.685964 2397.552503,9121.971495 2411.794634,9125.252082 2423.108447,9126.036256 2436.346951,9124.345057 2447.368671,9119.305487 2459.538214,9112.277787 2470.411490,9099.462476 2477.398629,9084.629414 2478.378599,9072.029426 2478.092554,8987.263952 2476.025418,8975.902981 2473.948235,8964.542150 2466.528010,8950.441515 2456.712096,8941.071962 2446.661198,8934.309375 2435.160930,8930.248226 2422.850488,8928.613706 2409.764043,8928.973242 2399.490364,8931.465199 2389.965558,8935.785935 2381.832382,8941.195245 2373.246349,8949.436151 2366.836822,8961.014918"/>
    <poly id="314696375" type="waterway.river" color="181,209,209" fill="0" layer="-4.00" shape="8413.838763,7448.668353 8417.854999,7447.705768 8716.937227,7375.765745 8886.230296,7332.819047 8978.217930,7311.774226 9085.174657,7273.312275 9172.227539,7235.649947 9512.087850,7048.535378 9780.729296,6904.581855 9900.550572,6842.622485 10150.931650,6705.424297 10247.648463,6665.591012 10406.223931,6602.388865 10454.167988,6578.473566 10488.247211,6556.205400 10511.248706,6526.805834 10501.779510,6480.477588 10381.349339,6195.289585 10329.179704,6002.378686 10223.634034,5765.386617 10176.112740,5634.235077 10059.959590,5234.435273 10045.412424,5185.781894 9955.999106,4884.229377 9909.183961,4719.012221 9885.972050,4678.584415 9838.896331,4658.849447 9793.298334,4630.874275 9764.344839,4598.533434 9712.505954,4542.755950 9709.481977,4511.985583 9732.102778,4484.761455 9739.404559,4482.160087 9808.601340,4452.973653 9819.796904,4437.900782 9827.127250,4414.847227 9824.981077,4375.279483 9826.342703,4342.511752 9842.988286,4297.519320 9890.419881,4189.408985 9915.355642,4124.696251 9908.665742,4094.827864 9820.106034,4065.730541 9766.604275,4029.307819 9765.724592,3963.410532 9811.918573,3904.086308 9827.072866,3865.539642 9798.889032,3829.975463 9757.434628,3793.380863 9752.035573,3750.322359 9778.192402,3723.605183 9883.747237,3598.787811 9934.223354,3498.658515 9926.311164,3447.235623 9906.413648,3373.604075 9900.381633,3279.280423 9886.045482,3254.145032 9846.828956,3250.546708 9790.353443,3264.916255 9727.807307,3277.782784 9697.512946,3274.708389 9679.876291,3265.127862 9628.803616,3230.977473 9556.399000,3174.001438 9520.879760,3136.475030 9506.723107,3101.521585 9488.205600,3061.408219 9469.901283,3004.917241 9468.613504,2963.465708 9476.890812,2926.251465 9489.725138,2901.351586 9498.158133,2875.779325 9489.613040,2838.058700 9464.691176,2800.102711 9423.407176,2767.528304 9289.144795,2756.516495 9274.881517,2752.729952 9259.047550,2664.608771 9252.281517,2623.186211 9251.589309,2589.482014 9272.623002,2536.586335 9282.132810,2472.799080 9261.255212,2434.445848 9272.918953,2406.935716 9288.311683,2362.125691 9289.047523,2317.943818 9275.175365,2243.490059 9276.605707,2217.413086 9287.458624,2199.153732 9339.510826,2172.399784 9439.041554,2110.566858 9459.143197,2084.838699 9489.490612,2029.226584 9492.477754,1987.219436 9484.505399,1955.529218 9480.408971,1914.503023 9473.833763,1870.020061 9489.380208,1856.927502 9506.036456,1841.127945 9531.548678,1840.388355"/>
    <poly id="315448097" type="leisure.park" color="207,245,201" fill="1" layer="-2.00" shape="2148.283267,8540.446250 2174.262351,8542.344209 2184.237843,8408.187042 2158.268547,8406.288909 2148.283267,8540.446250"/>
    <poly id="315448100" type="leisure.park" color="207,245,201" fill="1" layer="-2.00" shape="1887.024816,8767.511489 1994.646220,8776.479014 2001.752524,8689.582615 1891.390239,8683.689058 1887.024816,8767.511489"/>
    <poly id="315448108" type="natural.water" color="181,209,209" fill="1" layer="-4.00" shape="1978.239547,8721.099757 1977.292944,8718.786265 1977.455502,8716.036266 1978.136098,8713.688980 1977.697479,8711.058169 1977.039403,8707.821046 1978.627017,8704.951439 1981.250701,8702.167086 1984.723478,8702.628269 1988.830358,8703.889410 1990.493276,8706.414495 1990.542755,8709.959261 1988.860406,8713.240132 1990.840297,8716.159657 1991.095014,8720.011786 1987.871392,8723.003944 1984.817444,8723.755664 1982.172575,8724.302243 1978.239547,8721.099757"/>
    <poly id="315448109" type="leisure.park" color="207,245,201" fill="1" layer="-2.00" shape="2113.432998,8725.162949 2173.564617,8728.645317 2177.218021,8666.404912 2117.086125,8662.922511 2113.432998,8725.162949"/>
    <poly id="315448136" type="leisure.park" color="207,245,201" fill="1" layer="-2.00" shape="1810.295449,9140.114464 1843.989794,9142.025759 1846.292538,9101.896632 1812.598248,9099.996403 1810.295449,9140.114464"/>
    <poly id="315448149" type="leisure.park" color="207,245,201" fill="1" layer="-2.00" shape="2449.532221,8643.343235 2529.462989,8644.346745 2530.134279,8591.510264 2450.213241,8590.506591 2449.532221,8643.343235"/>
    <poly id="315449260" type="leisure.park" color="207,245,201" fill="1" layer="-2.00" shape="3171.262849,8515.062514 3166.726697,8474.873689 3188.495832,8472.433457 3193.032071,8512.633363 3171.262849,8515.062514"/>
    <poly id="315478892" type="waterway.stream" color="181,209,209" fill="0" layer="-4.00" shape="-634.246540,6803.619877 -613.360208,6804.654031 -602.206018,6808.905999 -597.852044,6818.339717 -595.017912,6830.442974 -598.286570,6850.144564 -594.104474,6863.768835 -571.629998,6883.316903 -551.204073,6898.705846 -519.041596,6928.277090 -494.341376,6948.901776 -486.474622,6955.194640 -474.726085,6954.585401 -458.464821,6942.655443 -436.558257,6922.036826 -406.190496,6902.838784 -378.840483,6890.530685 -363.301746,6890.754384 -335.340620,6889.694693 -281.019931,6885.171652 -230.028961,6880.396681 -195.588102,6872.088366 -172.036187,6861.928365 -161.904059,6854.295554 -166.058984,6837.579572 -172.517913,6827.787649 -183.316203,6766.846769 -182.534521,6758.149285 -171.126387,6756.193413 -155.768786,6755.677584 -112.049843,6738.286259 -85.805126,6720.244059 -48.367602,6705.633900 8.957568,6670.390200 27.184272,6660.250255 84.436128,6641.173141 128.848984,6608.793212 134.640993,6591.937055 126.038600,6579.781989 118.560017,6562.514462 127.050500,6545.321142 144.680468,6534.890634 207.040832,6536.715897 247.607118,6530.150713 288.597689,6511.602607 331.758813,6496.613895 346.571297,6500.903814 371.040011,6506.553658 383.931713,6502.173136 389.473940,6468.246939 403.359089,6427.322964 419.229753,6421.105688 436.662342,6418.766493 473.283018,6431.735475 544.892289,6448.101722 584.023304,6446.643305 637.549080,6462.665840 718.568592,6463.622039 750.660855,6475.458742 766.227166,6490.507903 796.779808,6521.534021 818.825833,6525.711847 831.577473,6512.060114 857.427364,6486.535640 886.918995,6484.925287 897.641692,6498.557875 946.224949,6526.927119 956.500686,6529.475352 967.232296,6521.535913 1011.909594,6443.341344 1024.173538,6437.175370 1095.327768,6443.368765 1140.996005,6435.837415 1251.998420,6426.493886 1295.427403,6431.281661 1310.243598,6435.860648 1388.321566,6419.799576 1454.378020,6384.130096 1534.022020,6372.236079 1610.985132,6363.371486 1690.009785,6350.290485 1719.593942,6333.701178 1863.845460,6312.519870 1882.240977,6314.357216 1887.067166,6336.149778 1888.505706,6396.036695 1880.222370,6406.633506 1866.438470,6411.922431 1863.647393,6427.228967 1873.713084,6457.944986 1875.431047,6537.128552 1875.882303,6591.788647 1878.164906,6648.062959 1884.791133,6669.232106 1960.753402,6674.465457 1979.386492,6693.373131 1982.435819,6718.193050 1973.896549,6753.655840 1979.563978,6770.938403 2032.700759,6802.549548 2083.474352,6815.314331 2148.384571,6848.855808 2190.907441,6853.658999 2245.904460,6866.664678 2287.141101,6887.351939 2298.982709,6907.861399 2319.660591,6960.378400 2315.657708,7001.982286 2313.164930,7017.085127 2317.769018,7056.907244 2336.398512,7136.254110 2358.656292,7186.078990 2389.971775,7209.497223 2460.055746,7229.428863 2478.076624,7246.329186 2521.999832,7245.718131 2559.686267,7222.946332 2577.274778,7208.763732 2600.805257,7214.330831 2637.229132,7236.614950 2651.107511,7265.638641 2746.227950,7322.218131 2752.817121,7335.776509 2753.019166,7382.141347 2763.563616,7406.281081 2804.978835,7415.411391 2815.793501,7427.182703 2825.766352,7473.843923 2834.391495,7487.861553 2858.392533,7489.733061 2879.706843,7489.880279 2946.755231,7522.941327"/>
    <poly id="315478898" type="natural.water" color="181,209,209" fill="1" layer="-4.00" shape="2127.554412,6823.685385 2138.982043,6800.768794 2175.260630,6811.043615 2173.873582,6841.310013 2127.554412,6823.685385"/>
    <poly id="315478899" type="natural.water" color="181,209,209" fill="1" layer="-4.00" shape="2196.492123,6843.388039 2195.736053,6810.758330 2275.451057,6804.850533 2256.509630,6850.340882 2196.492123,6843.388039"/>
    <poly id="315478904" type="waterway.canal" color="181,209,209" fill="0" layer="-4.00" shape="3178.066990,8855.695340 3256.800844,8839.336015 3462.987781,8786.300145 3645.208313,8744.512383 3806.244200,8704.471402 3839.735302,8694.557769 4011.289526,8674.737988 4210.599410,8652.354990 4403.219733,8622.788012"/>
    <poly id="315478911" type="leisure.park" color="207,245,201" fill="1" layer="-2.00" shape="2948.130729,8733.666110 3049.576783,8722.718317 3043.738287,8669.074920 2942.291822,8680.022733 2948.130729,8733.666110"/>
    <poly id="315580319" type="natural.water" color="181,209,209" fill="1" layer="-4.00" shape="5705.573295,10620.617432 5703.601608,10593.267349 5707.770320,10572.702402 5716.729959,10552.071876 5744.761509,10543.555944 5759.193259,10546.937057 5774.252039,10603.479387 5762.433063,10615.573590 5712.612145,10624.055384 5705.573295,10620.617432"/>
    <poly id="315580345" type="natural.grassland" color="140,196,107" fill="1" layer="-4.00" shape="5702.969787,10510.424619 5716.837945,10510.057507 5760.801764,10423.701643 5759.547865,10396.674123 5715.982723,10396.206757 5704.141138,10400.789510 5702.969787,10510.424619"/>
    <poly id="315580366" type="natural.water" color="181,209,209" fill="1" layer="-4.00" shape="4674.069897,10763.588078 4807.268730,10733.934424 4824.109300,10731.309587 4832.919057,10740.783160 4843.495668,10737.757024 4855.046727,10701.135819 4873.234773,10691.301982 4873.538782,10678.345980 4892.185811,10666.090550 4889.989141,10645.878692 4875.570654,10614.988174 4745.613359,10635.012741 4738.256338,10625.995638 4691.046336,10630.002524 4638.576097,10637.926571 4611.723540,10648.843973 4636.575086,10702.713318 4645.219805,10700.190043 4661.753403,10744.579191 4674.069897,10763.588078"/>
    <poly id="315580369" type="natural.water" color="181,209,209" fill="1" layer="-4.00" shape="4818.655762,10615.294597 4867.226363,10605.031754 4868.336300,10580.553171 4861.164672,10549.950780 4814.951673,10556.347723 4818.655762,10615.294597"/>
    <poly id="315580371" type="natural.wetland" color="181,209,209" fill="1" layer="-4.00" shape="4749.278714,10621.046560 4818.655762,10615.294597 4815.446885,10557.293740 4742.265584,10566.942605 4739.049240,10578.498375 4743.850106,10612.002915 4749.278714,10621.046560"/>
    <poly id="315580372" type="natural.water" color="181,209,209" fill="1" layer="-4.00" shape="4886.676900,10596.410398 4901.779379,10587.184094 4887.410589,10458.362070 4866.840808,10452.817169 4850.197872,10455.959938 4847.262170,10476.973621 4831.740330,10476.899049 4824.295248,10489.233118 4817.665932,10496.603478 4818.061281,10504.165272 4849.926767,10500.525018 4850.122999,10514.792588 4878.555191,10516.440179 4886.676900,10596.410398"/>
    <poly id="315580373" type="natural.wetland" color="181,209,209" fill="1" layer="-4.00" shape="4850.197872,10455.959938 4848.243952,10441.716543 4869.100019,10425.708048 4875.239939,10403.198912 4881.326845,10398.749928 4886.779032,10433.619378 4887.410589,10458.362070 4866.840808,10452.817169 4850.197872,10455.959938"/>
    <poly id="315580374" type="natural.wetland" color="181,209,209" fill="1" layer="-4.00" shape="4818.061281,10504.165272 4816.084399,10509.433024 4800.594597,10511.684725 4792.888079,10483.837411 4795.636658,10470.404597 4804.111750,10469.412730 4818.040176,10481.452785 4831.740330,10476.899049 4824.295248,10489.233118 4817.665932,10496.603478 4818.061281,10504.165272"/>
    <poly id="315580380" type="natural.water" color="181,209,209" fill="1" layer="-4.00" shape="7188.860819,9672.816544 7251.352470,9662.728373 7329.251538,9659.777061 7333.055444,9640.990478 7408.849449,9610.215000 7419.355939,9601.918257 7414.352591,9588.558053 7389.721046,9586.487789 7370.438644,9587.713125 7357.903119,9587.883105 7347.421295,9526.136636 7329.175392,9497.123815 7170.999413,9513.761587 7164.106236,9560.288278 7175.911937,9577.400569 7170.093461,9610.584339 7130.691509,9621.666707 7126.664059,9637.287736 7133.968590,9649.929695 7167.617328,9641.318547 7175.389966,9660.324738 7188.860819,9672.816544"/>
    <poly id="315581801" type="natural.water" color="181,209,209" fill="1" layer="-4.00" shape="7447.073621,9779.053998 7485.597948,9782.553630 7489.341705,9777.849619 7486.650107,9751.960696 7480.740473,9754.744114 7462.446086,9716.181505 7455.395194,9714.814611 7431.442901,9721.332565 7447.073621,9779.053998"/>
    <poly id="315581803" type="natural.water" color="181,209,209" fill="1" layer="-4.00" shape="7492.924390,9803.515962 7495.432875,9792.170075 7492.543560,9775.413116 7490.133902,9754.760848 7499.488416,9749.681670 7501.484904,9753.188890 7539.497801,9737.473154 7557.690906,9729.271811 7557.229215,9721.145914 7586.631739,9712.781696 7580.955798,9687.575783 7579.778567,9679.282310 7590.661946,9682.491913 7602.563931,9694.894563 7611.121881,9709.624827 7616.290208,9724.057540 7616.719863,9742.432150 7597.531060,9756.485647 7571.842174,9776.454890 7567.320059,9783.773037 7539.095247,9799.710626 7535.442651,9805.953400 7530.224078,9814.510792 7523.724437,9819.717458 7519.147281,9822.970293 7511.329970,9823.608019 7504.016188,9822.111715 7500.386638,9815.967608 7492.924390,9803.515962"/>
    <poly id="315581804" type="natural.water" color="181,209,209" fill="1" layer="-4.00" shape="7446.287714,9638.059267 7455.251368,9643.421996 7460.469971,9634.864578 7458.374835,9624.821953 7465.087820,9607.923783 7456.040376,9596.379972 7461.032712,9584.468615 7478.847335,9586.875129 7484.414008,9591.397575 7498.309016,9593.691040 7501.927050,9598.239896 7506.522789,9608.957714 7509.131185,9617.586327 7509.079759,9627.137318 7507.602461,9635.998557 7510.964242,9648.328504 7512.312712,9655.910583 7509.175627,9660.905503 7499.216793,9660.685907 7491.487260,9653.722098 7480.641670,9654.046334 7472.828913,9655.027470 7460.755064,9655.900172 7454.197578,9657.584456 7449.529244,9654.113454 7446.243977,9647.432889 7446.287714,9638.059267"/>
    <poly id="315581806" type="natural.water" color="181,209,209" fill="1" layer="-4.00" shape="7176.727835,9246.696224 7178.423424,9253.930115 7187.669406,9254.159167 7194.205425,9250.879646 7201.686386,9238.757150 7217.449319,9234.299906 7231.805143,9231.279915 7263.783298,9229.782473 7269.421130,9225.462647 7291.088127,9224.459682 7301.216087,9223.790513 7309.628469,9227.742501 7321.717130,9227.933096 7340.612440,9218.126571 7338.143170,9180.501748 7251.083162,9184.518813 7245.757359,9171.849943 7196.256493,9192.508534 7189.677151,9192.597819 7181.779809,9199.950818 7169.878712,9200.998677 7168.336767,9205.085687 7168.589588,9210.389212 7172.242920,9230.847303 7176.727835,9246.696224"/>
    <poly id="315605576" type="natural.grassland" color="140,196,107" fill="1" layer="-4.00" shape="1704.661335,10432.440328 1694.403913,10430.977287 1688.660303,10425.429208 1684.047763,10403.788813 1676.724625,10380.845713 1662.846686,10351.822994 1655.131057,10301.552030 1709.470612,10294.354551 1707.136336,10262.500136 1719.229828,10260.192612 1720.126954,10266.872137 1731.964279,10265.642928 1731.067004,10258.952325 1767.655882,10254.684642 1782.385564,10325.232923 1817.372171,10322.062488 1823.005316,10359.233305 1817.392397,10401.115058 1799.896784,10402.168484 1793.935612,10419.137129 1704.661335,10432.440328"/>
    <poly id="315605584" type="leisure.park" color="207,245,201" fill="1" layer="-2.00" shape="2401.452278,10668.610408 2457.706056,10664.070464 2447.463328,10586.501218 2388.580900,10595.631518 2401.452278,10668.610408"/>
    <poly id="316544911" type="leisure.park" color="207,245,201" fill="1" layer="-2.00" shape="2483.582650,8803.555479 2485.605591,8757.613776 2609.491924,8760.742501 2609.805232,8815.038845 2483.582650,8803.555479"/>
    <poly id="316775753" type="natural.water" color="181,209,209" fill="1" layer="-4.00" shape="5807.613402,9654.642679 5799.248434,9660.053010 5795.850602,9670.912913 5799.984068,9680.783456 5807.990650,9682.225053 5885.836396,9678.291023 5917.557854,9677.192626 5925.428607,9668.697996 5924.590643,9655.901751 5922.922157,9647.759095 5918.422221,9643.411032 5855.248290,9649.127433 5807.613402,9654.642679"/>
    <poly id="333590272" type="leisure.park" color="207,245,201" fill="1" layer="-2.00" shape="2548.089120,9764.460141 2628.571713,9752.902956 2620.981929,9700.591335 2540.499019,9712.148546 2548.089120,9764.460141"/>
    <poly id="333590276" type="leisure.park" color="207,245,201" fill="1" layer="-2.00" shape="2701.603724,9739.455595 2738.883071,9734.881959 2732.871654,9686.226756 2695.582125,9690.800540 2698.739611,9716.283837 2701.603724,9739.455595"/>
    <poly id="333590283" type="leisure.park" color="207,245,201" fill="1" layer="-2.00" shape="2236.822252,9720.147060 2317.912575,9711.814753 2312.863737,9663.135128 2231.773115,9671.467448 2236.822252,9720.147060"/>
    <poly id="333590295" type="natural.grassland" color="140,196,107" fill="1" layer="-4.00" shape="1949.268590,9325.916321 1997.504204,9324.511551 1996.531085,9280.716555 1993.185609,9277.129167 1949.881309,9291.372765 1949.268590,9325.916321"/>
    <poly id="333590299" type="leisure.park" color="207,245,201" fill="1" layer="-2.00" shape="1824.646003,9431.539317 1830.275888,9338.336839 1767.073971,9362.276764 1820.721833,9430.397564 1824.646003,9431.539317"/>
    <poly id="333590308" type="leisure.park" color="207,245,201" fill="1" layer="-2.00" shape="1730.036805,9261.361022 1859.071117,9208.957231 1858.712799,9204.164785 1732.481134,9199.048553 1730.036805,9261.361022"/>
    <poly id="333590315" type="natural.water" color="181,209,209" fill="1" layer="-4.00" shape="2013.720555,9217.323099 2011.740687,9226.635407 2018.537549,9238.517529 2025.851905,9245.007765 2080.591228,9240.942080 2097.685478,9236.216329 2100.531894,9224.199616 2099.607549,9201.155964 2095.832602,9189.829935 2085.885546,9189.071288 2056.579622,9203.551287 2041.624170,9210.352352 2027.208657,9212.647598 2013.720555,9217.323099"/>
    <poly id="333592494" type="natural.grassland" color="140,196,107" fill="1" layer="-4.00" shape="1939.866273,9054.077612 1963.791161,9052.835020 1972.330225,8970.727071 1944.555238,8971.114872 1939.866273,9054.077612"/>
    <poly id="333592495" type="natural.grassland" color="140,196,107" fill="1" layer="-4.00" shape="2092.507568,9055.215458 2116.819417,9055.064618 2121.503482,8945.743848 2096.427686,8943.002480 2092.507568,9055.215458"/>
    <poly id="333592500" type="leisure.park" color="207,245,201" fill="1" layer="-2.00" shape="2175.942524,9034.606980 2265.103080,9031.912403 2265.596569,9001.724858 2177.072860,8998.228149 2175.942524,9034.606980"/>
    <poly id="333592506" type="building.yes" color="255,230,230" fill="1" layer="-1.00" shape="2267.924550,8806.171806 2268.345409,8791.673907 2285.090799,8792.149611 2284.669922,8806.647509 2267.924550,8806.171806"/>
    <poly id="333592509" type="leisure.park" color="207,245,201" fill="1" layer="-2.00" shape="2481.691760,8469.246193 2536.395238,8472.484531 2536.980427,8422.840163 2483.213717,8421.228537 2481.691760,8469.246193"/>
    <poly id="333592512" type="natural.grassland" color="140,196,107" fill="1" layer="-4.00" shape="2241.001575,8548.393897 2262.393382,8549.890626 2266.509649,8412.679735 2242.985493,8410.315262 2241.001575,8548.393897"/>
    <poly id="333592516" type="natural.grassland" color="140,196,107" fill="1" layer="-4.00" shape="3080.793981,9009.443229 3105.129584,9005.216617 3095.760885,8915.813288 3067.769083,8916.500893 3080.793981,9009.443229"/>
    <poly id="333592536" type="leisure.park" color="207,245,201" fill="1" layer="-2.00" shape="2665.058679,9276.862162 2688.033608,9273.085770 2677.139348,9186.163381 2663.249596,9185.813691 2665.058679,9276.862162"/>
    <poly id="333592537" type="leisure.park" color="207,245,201" fill="1" layer="-2.00" shape="2622.036669,9127.299972 2656.576650,9127.185075 2654.658789,9055.039785 2617.549566,9054.647521 2622.036669,9127.299972"/>
    <poly id="333592543" type="leisure.park" color="207,245,201" fill="1" layer="-2.00" shape="3156.480227,8695.951668 3148.572914,8625.684497 3182.860744,8622.516623 3194.080939,8693.325070 3156.480227,8695.951668"/>
    <poly id="339927950" type="amenity.place_of_worship" color="237,199,199" fill="1" layer="-1.00" shape="4992.340974,8832.117430 4990.257943,8836.998801 5007.370895,8910.364027 5095.505346,8894.418412 5083.497201,8820.351512 5079.097166,8816.002324 4992.340974,8832.117430"/>
    <poly id="341225372" type="natural.water" color="181,209,209" fill="1" layer="-4.00" shape="9370.181690,7698.284864 9424.856404,7674.696241 9551.860564,7600.527424 9585.970273,7588.349256 9616.731684,7580.492500 9638.833059,7578.723289 9669.255534,7565.054682 9699.372625,7553.340149 9730.699154,7542.650948 9787.302778,7516.700434 9929.763777,7478.646017 9984.525460,7442.627977 9979.013446,7421.872964 9893.003035,7450.364739 9836.804996,7456.322731 9814.874815,7480.690586 9789.984973,7479.073335 9784.620576,7469.384387 9746.858191,7484.203345 9751.177725,7513.438634 9737.754120,7522.470277 9649.666701,7557.107124 9633.895273,7552.110949 9619.873819,7531.469890 9593.781100,7538.322435 9575.275824,7524.255912 9551.239290,7537.595518 9555.000595,7574.637915 9480.854206,7608.834530 9474.610547,7631.043058 9388.837737,7677.106512 9358.906037,7689.871817 9370.181690,7698.284864"/>