<?xml version="1.0" encoding="UTF-8"?>

<!-- generated on 2022-04-10 11:11:21 by Eclipse SUMO GUI Version 1.12.0
-->

<configuration xmlns:xsi="http://www.w3.org/2001/XMLSchema-instance" xsi:noNamespaceSchemaLocation="http://sumo.dlr.de/xsd/sumoConfiguration.xsd">

    <input>
        <net-file value="/home/minor/Sumo/minor-project/osm/osm.net.xml"/>
        <route-files value="/home/minor/Sumo/minor-project/osm/osm_pt.rou.xml,/home/minor/Sumo/minor-project/osm/osm.passenger.trips.xml"/>
        <additional-files value="/home/minor/Sumo/minor-project/osm/osm.poly.xml,/home/minor/Sumo/minor-project/osm/osm_stops.add.xml"/>
    </input>

    <processing>
        <ignore-route-errors value="true"/>
    </processing>

    <routing>
        <device.rerouting.adaptation-steps value="18"/>
        <device.rerouting.adaptation-interval value="10"/>
    </routing>

    <report>
        <verbose value="true"/>
        <duration-log.statistics value="true"/>
        <no-step-log value="true"/>
    </report>

    <gui_only>
        <gui-settings-file value="/home/minor/Sumo/minor-project/osm/osm.view.xml"/>
    </gui_only>

</configuration>
