<?xml version="1.0" encoding="UTF-8"?>

<!-- generated on 2022-04-10 10:54:54 by Eclipse SUMO netconvert Version 1.12.0
<configuration xmlns:xsi="http://www.w3.org/2001/XMLSchema-instance" xsi:noNamespaceSchemaLocation="http://sumo.dlr.de/xsd/netconvertConfiguration.xsd">

    <input>
        <type-files value="/home/minor/.local/share/sumo/data/typemap/osmNetconvert.typ.xml"/>
        <osm-files value="osm_bbox.osm.xml"/>
    </input>

    <output>
        <output-file value="osm.net.xml"/>
        <output.street-names value="true"/>
        <output.original-names value="true"/>
        <ptstop-output value="osm_stops.add.xml"/>
        <ptline-output value="osm_ptlines.xml"/>
    </output>

    <projection>
        <proj.utm value="true"/>
    </projection>

    <processing>
        <geometry.remove value="true"/>
        <roundabouts.guess value="true"/>
        <lefthand value="true"/>
    </processing>

    <tls_building>
        <tls.discard-simple value="true"/>
        <tls.join value="true"/>
        <tls.guess-signals value="true"/>
        <tls.default-type value="actuated"/>
    </tls_building>

    <ramp_guessing>
        <ramps.guess value="true"/>
    </ramp_guessing>

    <junctions>
        <junctions.join value="true"/>
        <junctions.corner-detail value="5"/>
    </junctions>

    <railway>
        <railway.topology.repair value="true"/>
        <railway.topology.repair.stop-turn value="true"/>
    </railway>

    <report>
        <verbose value="true"/>
        <aggregate-warnings value="5"/>
    </report>

</configuration>
-->

<additional xmlns:xsi="http://www.w3.org/2001/XMLSchema-instance" xsi:noNamespaceSchemaLocation="http://sumo.dlr.de/xsd/additional_file.xsd">
    <busStop id="312819409" name="Rajendra Nagar" lane="809936398#2_0" startPos="193.62" endPos="393.62" friendlyPos="true">
        <access lane="861224369_0" pos="6.89" length="11.81" friendlyPos="1"/>
        <access lane="861224372_0" pos="17.38" length="17.83" friendlyPos="1"/>
        <access lane="861224374#0_0" pos="0.00" length="20.77" friendlyPos="1"/>
        <access lane="861224375#0_0" pos="1.61" length="14.98" friendlyPos="1"/>
        <access lane="861224375#1_0" pos="1.56" length="5.13" friendlyPos="1"/>
    </busStop>
    <busStop id="8026641155" name="Rajendra Nagar" lane="428426148#0_0" startPos="165.85" endPos="365.85" friendlyPos="true">
        <access lane="861224368_0" pos="6.97" length="14.54" friendlyPos="1"/>
        <access lane="861224373_0" pos="18.55" length="19.78" friendlyPos="1"/>
        <access lane="861224374#0_0" pos="0.00" length="5.34" friendlyPos="1"/>
        <access lane="861224374#1_0" pos="0.00" length="17.84" friendlyPos="1"/>
        <access lane="861224375#1_0" pos="1.56" length="20.60" friendlyPos="1"/>
    </busStop>
    <busStop id="8026641156" name="Rajendra Nagar" lane="626667467_0" startPos="410.51" endPos="610.51" friendlyPos="true">
        <access lane="861224369_0" pos="6.89" length="10.02" friendlyPos="1"/>
        <access lane="861224370_0" pos="6.34" length="16.23" friendlyPos="1"/>
        <access lane="861224375#0_0" pos="0.00" length="3.16" friendlyPos="1"/>
        <access lane="861224375#1_0" pos="0.00" length="13.06" friendlyPos="1"/>
        <access lane="861224376#1_0" pos="1.23" length="10.14" friendlyPos="1"/>
    </busStop>
    <busStop id="8026641157" name="Rajendra Nagar" lane="626667468#2_0" startPos="202.61" endPos="402.61" friendlyPos="true">
        <access lane="861224369_0" pos="6.89" length="16.02" friendlyPos="1"/>
        <access lane="861224370_0" pos="6.34" length="10.22" friendlyPos="1"/>
        <access lane="861224375#0_0" pos="0.00" length="9.42" friendlyPos="1"/>
        <access lane="861224376#0_0" pos="2.84" length="13.21" friendlyPos="1"/>
        <access lane="861224376#1_0" pos="1.23" length="3.87" friendlyPos="1"/>
    </busStop>
    <busStop id="8040326008" name="Patna Junction" lane="428453286_0" startPos="1220.73" endPos="1420.73" friendlyPos="true"/>
</additional>
